/*--------------------------------*- C++ -*----------------------------------*\
  =========                 |
  \\      /  F ield         | OpenFOAM: The Open Source CFD Toolbox
   \\    /   O peration     | Website:  https://openfoam.org
    \\  /    A nd           | Version:  6
     \\/     M anipulation  |
\*---------------------------------------------------------------------------*/
FoamFile
{
    version     2.0;
    format      ascii;
    class       volVectorField;
    location    "0";
    object      U;
}
// * * * * * * * * * * * * * * * * * * * * * * * * * * * * * * * * * * * * * //

#include "../input.txt"

dimensions      [0 1 -1 0 0 0 0];

internalField uniform (0 0 0);

boundaryField
{

    wall
    {
        type            noSlip;
    }

    outlet
    {
        type           zeroGradient;
    }

    frontAndBack
    {
        type            empty;
    }


    inlet
    {
       type zeroGradient;
    }

    bottom
    {
        type            membraneVelocity;
        membranePermeability  $permeability;
        membranePorosity  $porosity;
        membraneWidth $thickness;
        osmoticPressure "chi";
        osmoticCoefficient $osmotic;
        solidSource "chi";
        solidConcentration "binaryReaction";
        solidModel "scalingLayer"; // KozenyCarman32, scalingLayer
        solidBinaryReaction true;
        solidVolume $molVolume;
        solidPermeability 1;//$solidPermeability;
        writeAvg true;

        outsidePressure uniform $pp;

    }
}


// ************************************************************************* //
