/*--------------------------------*- C++ -*----------------------------------*\
  =========                 |
  \\      /  F ield         | OpenFOAM: The Open Source CFD Toolbox
   \\    /   O peration     | Website:  https://openfoam.org
    \\  /    A nd           | Version:  6
     \\/     M anipulation  |
\*---------------------------------------------------------------------------*/
FoamFile
{
    version     2.0;
    format      ascii;
    class       volVectorField;
    location    "0";
    object      U;
}
// * * * * * * * * * * * * * * * * * * * * * * * * * * * * * * * * * * * * * //

#include "../input.txt"

dimensions      [0 1 -1 0 0 0 0];

// internalField uniform ($Uin 0 0);

internalField  #codeStream
{
  codeInclude
  #{
     #include "fvCFD.H"
     #include "Time.H"
  #};

  codeOptions
  #{
     -I$(LIB_SRC)/finiteVolume/lnInclude \
     -I$(LIB_SRC)/meshTools/lnInclude
  #};

  codeLibs
  #{
     -lmeshTools \
     -lfiniteVolume
  #};

  code
  #{
    const IOdictionary& d = static_cast<const IOdictionary&>(dict);
    const fvMesh& mesh = refCast<const fvMesh>(d.db());


    // This is the channel height (input)
    scalar maxY(3e-3);

    // This is the average velocity (input)
    scalar uave(1e-1);

    vectorField v(mesh.nCells(), vector(0.,0.,0.));


    forAll(v, i)
    {
       const scalar y = mesh.C()[i][2];
       v[i].x() = -8.*uave*(y*y/(maxY*maxY)-y/maxY);
    }

    writeEntry(os, "", v);

  #};
};


boundaryField
{

    wall
    {
        type            noSlip;
    }

    outlet
    {
        type           zeroGradient;
    }

    frontAndBack
    {
        type            empty;
    }


    inlet
    {
       //type zeroGradient;
    //    type fixedValue;
    //    value uniform ($Uin 0 0);
    type    codedFixedValue;
    value   uniform ($Uin 0 0);
    name    parabolicNormalInlet;   // name of generated BC

    code
    #{

        // Initialize vector field for internal field
        vectorField fld(patch().size(), vector(0,0,0));

        // This is the channel height (input)
        scalar maxY(3e-3);

        // This is the average velocity (input)
        scalar uave(1e-1);

        // Current internal field
        const vectorField intfld(this->patchInternalField());

        forAll(patch().Cf(),facei)
        {
            scalar y(patch().Cf()[facei].y());
            fld[facei].x() = -8.*uave*(y*y/(maxY*maxY)-y/maxY);

            // Zero gradient for the y-component (take first cell value)
            fld[facei].y() = intfld[facei].y();
        }

        operator==(fld);
    #};
    }

    bottom
    {
        type            membraneVelocity;
        membranePermeability  $permeability;
        membranePorosity  $porosity;
        membraneWidth $thickness;
        osmoticPressure "chi";
        osmoticCoefficient $osmotic;
        solidSource "chi";
        solidConcentration "binaryReaction";
        solidModel "KozenyCarman32";
        solidBinaryReaction true;
        solidVolume $molVolume;
        writeAvg true;

        outsidePressure uniform $pp;

    }
}


// ************************************************************************* //
